*SPEF "1481-1998"
*DESIGN "power_of_four_rtl"
*DATE "Sun Apr  5 16:32:50 2026"
*VENDOR "Synopsys, Inc."
*PROGRAM "icc2 /home/synopsys_install/icc2/W-2024.09/linux64/nwtn/bin/icc2_exec"
*VERSION "W-2024.09 Aug 25, 2024"
*DESIGN_FLOW "ICC2 SPEF DR"
*DIVIDER /
*DELIMITER :
*BUS_DELIMITER [ ]
*T_UNIT 1 NS
*C_UNIT 1 FF
*R_UNIT 1 OHM
*L_UNIT 1 HENRY

// XY_UNIT 1 UM
// PARASITIC_TECH p1 at 125.000 degree

*NAME_MAP
*1 clk
*2 x[1]
*3 x[0]
*4 y[6]
*5 y[5]
*6 y[4]
*7 y[3]
*8 y[2]
*9 y[1]
*10 y[0]
*11 VDD
*12 VSS
*13 x_reg_reg[1]
*14 x_reg_reg[0]
*15 y_reg[6]
*16 y_reg[0]
*17 y_reg[4]
*18 y_reg[2]
*19 copt_h_inst_1251
*20 copt_h_inst_1253
*21 copt_h_inst_1254
*22 copt_net_1
*23 copt_net_3
*24 copt_net_4
*25 n3
*26 x_reg[1]
*27 x_reg[0]

*PORTS

*1 I *C 30.080 75.065
*2 I *C 0.143 62.760
*3 I *C 0.143 60.936
*4 O *C 57.433 60.936
*5 O *C 57.433 63.976
*6 O *C 57.433 62.760
*7 O *C 57.433 62.152
*8 O *C 57.433 66.104
*9 O *C 57.433 63.368
*10 O *C 57.433 59.416
*11 I *C 28.788 37.604
*12 I *C 28.788 37.604

*D_NET *22 1.907565 //LENGTH 23.387 LUMPCC 0 DR

*CONN
*I *19:Y O *L 0 *C 37.376 69.600
*I *18:SETB I *L 0.55078 *C 31.904 69.448
*I *16:SETB I *L 0.55078 *C 34.914 64.288
*I *17:RSTB I *L 0.768783 *C 33.880 66.712
*I *15:RSTB I *L 0.768783 *C 29.624 63.368
*N *22:5 *C 29.625 63.368
*N *22:6 *C 33.880 66.699
*N *22:7 *C 33.895 64.280
*N *22:8 *C 33.880 64.280
*N *22:9 *C 33.880 63.686
*N *22:10 *C 33.880 63.671
*N *22:11 *C 33.880 63.368
*N *22:12 *C 29.790 63.368
*N *22:13 *C 29.776 63.382
*N *22:14 *C 29.776 66.395
*N *22:15 *C 29.790 66.408
*N *22:16 *C 31.891 66.408
*N *22:17 *C 31.904 66.422
*N *22:18 *C 31.904 69.434
*N *22:19 *C 31.918 69.448
*N *22:20 *C 37.363 69.448
*N *22:21 *C 37.376 69.448
*N *22:22 *C 37.376 69.588

*CAP
0 *19:Y 0.001
1 *18:SETB 0.001
2 *16:SETB 0.05917732
3 *17:RSTB 0.001
4 *15:RSTB 0.001
5 *22:5 0.004179183
6 *22:6 0.1043247
7 *22:7 0.05710193
8 *22:8 0.1324404
9 *22:9 0.02401404
10 *22:10 0.00911252
11 *22:11 0.1763742
12 *22:12 0.1625173
13 *22:13 0.1392884
14 *22:14 0.1313043
15 *22:15 0.07644426
16 *22:16 0.07644426
17 *22:17 0.1853971
18 *22:18 0.1815922
19 *22:19 0.1844736
20 *22:20 0.1844736
21 *22:21 0.008169021
22 *22:22 0.006736344

*RES
0 *19:Y *22:22 1
1 *22:6 *17:RSTB 1
2 *22:7 *16:SETB 2.038
3 *22:8 *22:7 1
4 *22:8 *22:6 4.31875
5 *22:18 *18:SETB 1
6 *22:18 *22:17 5.380358
7 *22:19 *22:18 0.5
8 *22:21 *22:20 0.5
9 *22:20 *22:19 9.723214
10 *22:22 *22:21 0.2325
11 *22:17 *22:16 0.5
12 *22:16 *22:15 3.751786
13 *22:14 *22:13 5.380358
14 *22:15 *22:14 0.5
15 *22:9 *22:8 1.061607
16 *22:10 *22:9 0.5
17 *22:13 *22:12 0.5
18 *22:13 *22:5 0.2696429
19 *22:12 *22:11 7.304465
20 *22:5 *15:RSTB 1
21 *22:11 *22:10 0.5410715

*END

*D_NET *23 1.909964 //LENGTH 22.400 LUMPCC 0 DR

*CONN
*I *20:Y O *L 0 *C 38.896 60.784
*I *17:SETB I *L 0.55078 *C 33.715 66.124
*I *18:RSTB I *L 0.768783 *C 32.056 70.056
*I *15:D I *L 0.614209 *C 30.232 62.608
*N *23:4 *C 30.232 62.622
*N *23:5 *C 30.232 64.571
*N *23:6 *C 30.245 64.584
*N *23:7 *C 32.056 70.043
*N *23:8 *C 32.056 64.597
*N *23:9 *C 32.056 64.584
*N *23:10 *C 33.589 66.104
*N *23:11 *C 33.576 66.091
*N *23:12 *C 33.576 64.597
*N *23:13 *C 33.576 64.584
*N *23:14 *C 33.728 64.584
*N *23:15 *C 33.728 64.280
*N *23:16 *C 38.730 64.280
*N *23:17 *C 38.744 64.267
*N *23:18 *C 38.744 61.240
*N *23:19 *C 38.896 61.240
*N *23:20 *C 38.896 60.797

*CAP
0 *20:Y 0.001
1 *17:SETB 0.01689712
2 *18:RSTB 0.001
3 *15:D 0.001
4 *23:4 0.07866497
5 *23:5 0.08009765
6 *23:6 0.0636518
7 *23:7 0.284494
8 *23:8 0.2859266
9 *23:9 0.1186883
10 *23:10 0.01482172
11 *23:11 0.07018432
12 *23:12 0.06988751
13 *23:13 0.06024918
14 *23:14 0.01971723
15 *23:15 0.1922375
16 *23:16 0.1777329
17 *23:17 0.1405754
18 *23:18 0.1511796
19 *23:19 0.04699755
20 *23:20 0.0349607

*RES
0 *20:Y *23:20 1
1 *23:17 *23:16 0.5
2 *23:16 *23:15 8.933036
3 *23:20 *23:19 0.7901786
4 *23:12 *23:11 2.666071
5 *23:13 *23:12 0.5
6 *23:13 *23:9 2.714286
7 *23:10 *17:SETB 0.2116667
8 *23:11 *23:10 1
9 *23:8 *23:7 9.723214
10 *23:9 *23:8 0.5
11 *23:9 *23:6 3.233036
12 *23:7 *18:RSTB 1
13 *23:5 *23:4 3.480357
14 *23:6 *23:5 0.5
15 *23:4 *15:D 1
16 *23:18 *23:17 5.404464
17 *23:19 *23:18 0.2714286
18 *23:14 *23:13 0.2714286
19 *23:15 *23:14 0.5428572

*END

*D_NET *24 0.861407 //LENGTH 11.907 LUMPCC 0 DR

*CONN
*I *21:Y O *L 0 *C 42.878 60.786
*I *16:RSTB I *L 0.768783 *C 35.096 63.672
*N *24:2 *C 35.096 63.659
*N *24:3 *C 35.096 62.166
*N *24:4 *C 35.110 62.152
*N *24:5 *C 43.291 62.152
*N *24:6 *C 43.304 62.139
*N *24:7 *C 43.304 60.797
*N *24:8 *C 43.289 60.784

*CAP
0 *21:Y 0.02473296
1 *16:RSTB 0.001
2 *24:2 0.05637061
3 *24:3 0.05780329
4 *24:4 0.2983972
5 *24:5 0.2983972
6 *24:6 0.0508757
7 *24:7 0.05117252
8 *24:8 0.02265756

*RES
0 *21:Y *24:8 0.8220001
1 *24:2 *16:RSTB 1
2 *24:3 *24:2 2.666072
3 *24:4 *24:3 0.5
4 *24:6 *24:5 0.5
5 *24:5 *24:4 14.60893
6 *24:8 *24:7 1
7 *24:7 *24:6 2.394643

*END

*D_NET *1 2.044219 //LENGTH 29.440 LUMPCC 0 DR

*CONN
*P *1 I *L 0 *C 30.080 74.949
*I *18:CLK I *L 0.717204 *C 32.816 68.688
*I *14:CLK I *L 0.714381 *C 29.472 65.344
*I *13:CLK I *L 0.714381 *C 28.560 68.384
*I *17:CLK I *L 0.717204 *C 34.640 65.344
*I *16:CLK I *L 0.717204 *C 35.856 65.040
*I *15:CLK I *L 0.717204 *C 30.372 62.000
*N *1:7 *C 30.050 62.152
*N *1:8 *C 30.245 62.000
*N *1:9 *C 30.232 62.000
*N *1:10 *C 30.232 62.140
*N *1:11 *C 30.220 62.152
*N *1:12 *C 30.232 62.166
*N *1:13 *C 35.856 65.028
*N *1:14 *C 35.856 64.888
*N *1:15 *C 35.843 64.888
*N *1:16 *C 35.110 64.888
*N *1:17 *C 35.096 64.901
*N *1:18 *C 35.096 65.483
*N *1:19 *C 35.083 65.496
*N *1:20 *C 34.640 65.344
*N *1:21 *C 34.640 65.484
*N *1:22 *C 34.640 65.496
*N *1:23 *C 30.245 65.496
*N *1:24 *C 30.232 65.496
*N *1:25 *C 28.560 68.371
*N *1:26 *C 28.560 67.029
*N *1:27 *C 28.574 67.016
*N *1:28 *C 29.472 65.344
*N *1:29 *C 29.472 65.484
*N *1:30 *C 29.472 65.496
*N *1:31 *C 29.612 65.496
*N *1:32 *C 29.624 65.510
*N *1:33 *C 29.624 67.002
*N *1:34 *C 29.624 67.016
*N *1:35 *C 30.219 67.016
*N *1:36 *C 30.232 67.016
*N *1:37 *C 32.816 68.688
*N *1:38 *C 32.816 68.828
*N *1:39 *C 32.803 68.840
*N *1:40 *C 30.245 68.840
*N *1:41 *C 30.232 68.840
*N *1:42 *C 30.232 74.907
*N *1:43 *C 30.220 74.920
*N *1:44 *C 30.080 74.920
*N *1:45 *C 30.080 74.920

*CAP
0 *1 0.005830071
1 *18:CLK 0.001
2 *14:CLK 0.001
3 *13:CLK 0.001
4 *17:CLK 0.001
5 *16:CLK 0.001
6 *15:CLK 0.01639026
7 *1:7 0.01023116
8 *1:8 0.01431486
9 *1:9 0.008458054
10 *1:10 0.008161235
11 *1:11 0.005487273
12 *1:12 0.1136077
13 *1:13 0.009193062
14 *1:14 0.01062574
15 *1:15 0.03240211
16 *1:16 0.03240265
17 *1:17 0.02574559
18 *1:18 0.02574559
19 *1:19 0.01622534
20 *1:20 0.007845714
21 *1:21 0.009278392
22 *1:22 0.1826497
23 *1:23 0.1640532
24 *1:24 0.1713648
25 *1:25 0.0541207
26 *1:26 0.05555338
27 *1:27 0.04564306
28 *1:28 0.009725596
29 *1:29 0.01115827
30 *1:30 0.007934872
31 *1:31 0.007935418
32 *1:32 0.05979947
33 *1:33 0.05979947
34 *1:34 0.07195511
35 *1:35 0.02393984
36 *1:36 0.1158631
37 *1:37 0.008531003
38 *1:38 0.009963682
39 *1:39 0.0949112
40 *1:40 0.09491174
41 *1:41 0.2408921
42 *1:42 0.1804144
43 *1:43 0.006348407
44 *1:44 0.006347861
45 *1:45 0.003457853

*RES
0 *1 *1:45 0.09166668
1 *1:19 *1:18 0.5
2 *1:18 *1:17 1.0375
3 *1:16 *1:15 1.308929
4 *1:17 *1:16 0.5
5 *1:14 *1:13 0.2325
6 *1:15 *1:14 0.5
7 *1:13 *16:CLK 1
8 *1:21 *1:20 0.2325
9 *1:22 *1:21 0.5
10 *1:22 *1:19 0.7901787
11 *1:20 *17:CLK 1
12 *1:40 *1:39 4.566072
13 *1:41 *1:40 0.5
14 *1:41 *1:36 3.257143
15 *1:38 *1:37 0.2325
16 *1:39 *1:38 0.5
17 *1:37 *18:CLK 1
18 *1:23 *1:22 7.847322
19 *1:24 *1:23 0.5
20 *1:24 *1:12 5.947322
21 *1:43 *1:42 0.5
22 *1:42 *1:41 10.83304
23 *1:45 *1:44 0.5
24 *1:44 *1:43 0.2325
25 *1:11 *1:10 0.5
26 *1:11 *1:7 0.2825
27 *1:12 *1:11 0.5
28 *1:10 *1:9 0.2325
29 *1:8 *15:CLK 0.2125
30 *1:9 *1:8 1
31 *1:35 *1:34 1.061607
32 *1:36 *1:35 0.5
33 *1:36 *1:24 2.714286
34 *1:34 *1:33 0.5
35 *1:34 *1:27 1.875893
36 *1:33 *1:32 2.666071
37 *1:31 *1:30 0.2325
38 *1:32 *1:31 0.5
39 *1:29 *1:28 0.2325
40 *1:30 *1:29 0.5
41 *1:28 *14:CLK 1
42 *1:26 *1:25 2.394643
43 *1:27 *1:26 0.5
44 *1:25 *13:CLK 1

*END

*D_NET *2 2.090612 //LENGTH 33.100 LUMPCC 0 DR

*CONN
*P *2 I *L 0 *C 0.258 62.760
*I *13:D I *L 0.558146 *C 28.256 67.472
*N *2:2 *C 28.256 67.460
*N *2:3 *C 28.256 67.320
*N *2:4 *C 28.242 67.320
*N *2:5 *C 27.358 67.320
*N *2:6 *C 27.344 67.306
*N *2:7 *C 27.344 62.774
*N *2:8 *C 27.331 62.760

*CAP
0 *2 0.8400123
1 *13:D 0.001
2 *2:2 0.007596341
3 *2:3 0.00902902
4 *2:4 0.03419027
5 *2:5 0.03419027
6 *2:6 0.1634771
7 *2:7 0.1634771
8 *2:8 0.8376401

*RES
0 *2 *2:8 48.34374
1 *2:2 *13:D 1
2 *2:3 *2:2 0.2325
3 *2:4 *2:3 0.5
4 *2:6 *2:5 0.5
5 *2:5 *2:4 1.580357
6 *2:7 *2:6 8.094644
7 *2:8 *2:7 0.5

*END

*D_NET *3 2.22695 //LENGTH 34.395 LUMPCC 0 DR

*CONN
*P *3 I *L 0 *C 0.258 60.936
*I *14:D I *L 0.558146 *C 29.168 66.256
*N *3:2 *C 29.168 66.243
*N *3:3 *C 29.168 60.950
*N *3:4 *C 29.155 60.936

*CAP
0 *3 0.8980777
1 *14:D 0.001
2 *3:2 0.215367
3 *3:3 0.2167997
4 *3:4 0.8957055

*RES
0 *3 *3:4 51.60088
1 *3:2 *14:D 1
2 *3:3 *3:2 9.451786
3 *3:4 *3:3 0.5

*END

*D_NET *4 1.651627 //LENGTH 25.579 LUMPCC 0 DR

*CONN
*I *15:Q O *L 0 *C 33.424 62.456
*P *4 O *L 0 *C 57.318 60.936
*N *4:2 *C 33.438 60.936
*N *4:3 *C 33.424 60.950
*N *4:4 *C 33.424 62.443

*CAP
0 *15:Q 0.001
1 *4 0.7675892
2 *4:2 0.7652169
3 *4:3 0.05962658
4 *4:4 0.0581939

*RES
0 *15:Q *4:4 1
1 *4:4 *4:3 2.666071
2 *4:3 *4:2 0.5
3 *4:2 *4 42.64375

*END

*D_NET *6 1.521253 //LENGTH 22.843 LUMPCC 0 DR

*CONN
*I *17:Q O *L 0 *C 37.680 65.800
*P *6 O *L 0 *C 57.318 62.760
*N *6:2 *C 37.694 62.760
*N *6:3 *C 37.680 62.774
*N *6:4 *C 37.680 65.787

*CAP
0 *17:Q 0.001
1 *6 0.6399974
2 *6:2 0.6376252
3 *6:3 0.1220318
4 *6:4 0.1205991

*RES
0 *17:Q *6:4 1
1 *6:4 *6:3 5.380357
2 *6:3 *6:2 0.5
3 *6:2 *6 35.04375

*END

*D_NET *8 1.553246 //LENGTH 24.667 LUMPCC 0 DR

*CONN
*I *18:Q O *L 0 *C 35.856 69.144
*P *8 O *L 0 *C 57.318 66.104
*N *8:2 *C 35.870 66.104
*N *8:3 *C 35.856 66.118
*N *8:4 *C 35.856 69.130

*CAP
0 *18:Q 0.001
1 *8 0.6595834
2 *8:2 0.6572112
3 *8:3 0.118442
4 *8:4 0.1170093

*RES
0 *18:Q *8:4 1
1 *8:4 *8:3 5.380358
2 *8:3 *8:2 0.5
3 *8:2 *8 38.3009

*END

*D_NET *10 1.751364 //LENGTH 23.798 LUMPCC 0 DR

*CONN
*I *16:Q O *L 0 *C 38.909 64.572
*P *10 O *L 0 *C 57.318 59.416
*N *10:2 *C 39.062 59.416
*N *10:3 *C 39.048 59.430
*N *10:4 *C 39.048 64.571
*N *10:5 *C 39.035 64.584

*CAP
0 *16:Q 0.01187548
1 *10 0.5675554
2 *10:2 0.5651832
3 *10:3 0.2983267
4 *10:4 0.2986235
5 *10:5 0.00980008

*RES
0 *16:Q *10:5 0.2116667
1 *10:5 *10:4 1
2 *10:4 *10:3 9.180359
3 *10:3 *10:2 0.5
4 *10:2 *10 32.60089

*END

*D_NET *25 1.125886 //LENGTH 12.723 LUMPCC 0 DR

*CONN
*I *14:QN O *L 0 *C 32.664 65.648
*I *21:A I *L 0.427737 *C 39.200 60.936
*N *25:2 *C 32.482 63.976
*N *25:3 *C 32.664 63.794
*N *25:4 *C 39.352 63.794
*N *25:5 *C 39.200 60.950
*N *25:6 *C 39.200 63.963
*N *25:7 *C 39.200 63.976
*N *25:8 *C 39.340 63.976
*N *25:9 *C 39.352 63.964
*N *25:10 *C 39.339 63.976
*N *25:11 *C 32.678 63.976
*N *25:12 *C 32.664 63.964
*N *25:13 *C 32.651 63.976
*N *25:14 *C 32.664 63.989
*N *25:15 *C 32.664 65.635

*CAP
0 *14:QN 0.001
1 *21:A 0.001
2 *25:2 0.01166499
3 *25:3 0.01150116
4 *25:4 0.0103704
5 *25:5 0.1811147
6 *25:6 0.1825474
7 *25:7 0.007522235
8 *25:8 0.007522781
9 *25:9 0.00562758
10 *25:10 0.2451905
11 *25:11 0.2451905
12 *25:12 0.006758341
13 *25:13 0.006921104
14 *25:14 0.1016933
15 *25:15 0.1002606

*RES
0 *14:QN *25:15 1
1 *25:5 *21:A 1
2 *25:6 *25:5 5.380358
3 *25:7 *25:6 0.5
4 *25:8 *25:7 0.2325
5 *25:9 *25:8 0.5
6 *25:9 *25:4 0.2825
7 *25:10 *25:9 0.5
8 *25:12 *25:11 0.5
9 *25:12 *25:3 0.2825
10 *25:11 *25:10 11.89464
11 *25:13 *25:12 0.5
12 *25:13 *25:2 0.2825
13 *25:14 *25:13 0.5
14 *25:15 *25:14 2.9375

*END

*D_NET *26 0.8681166 //LENGTH 13.230 LUMPCC 0 DR

*CONN
*I *13:Q O *L 0 *C 31.600 67.928
*I *19:A I *L 0.424274 *C 42.848 69.448
*N *26:2 *C 31.600 67.746
*N *26:3 *C 42.848 69.434
*N *26:4 *C 42.848 67.942
*N *26:5 *C 42.835 67.928
*N *26:6 *C 31.614 67.928
*N *26:7 *C 31.600 67.916

*CAP
0 *13:Q 0.001
1 *19:A 0.001
2 *26:2 0.0134523
3 *26:3 0.05711776
4 *26:4 0.05855044
5 *26:5 0.3648604
6 *26:6 0.3648604
7 *26:7 0.007275185

*RES
0 *13:Q *26:7 1
1 *26:3 *19:A 1
2 *26:4 *26:3 2.666071
3 *26:5 *26:4 0.5
4 *26:7 *26:6 0.5
5 *26:7 *26:2 0.2825
6 *26:6 *26:5 20.0375

*END

*D_NET *27 0.5644614 //LENGTH 5.911 LUMPCC 0 DR

*CONN
*I *14:Q O *L 0 *C 32.512 65.800
*I *20:A I *L 0.424274 *C 33.394 60.936
*N *27:2 *C 32.527 60.936
*N *27:3 *C 32.512 60.950
*N *27:4 *C 32.512 65.787

*CAP
0 *14:Q 0.001
1 *20:A 0.05024227
2 *27:2 0.04816687
3 *27:3 0.2333909
4 *27:4 0.2316613

*RES
0 *14:Q *27:4 1
1 *27:2 *20:A 1.734
2 *27:3 *27:2 1
3 *27:4 *27:3 8.6375

*END

